function mpc = case8_isone_42_45
%CASE8_ISONE_42_45  8-zone synthetic grid based on ISO-NE data
%  This case represents hour 42/96 (4 days) and scenario 45/90.
%  Original system was created by Dheepak Krishnamurthy, Wanning Li
%  and Leigh Tesfatsion from Iowa State University.
%  Please cite [1] when publishing results based on this system.
%
%  [1] Krishnamurthy, Dheepak, Wanning Li, and Leigh Tesfatsion.
%  "An 8-zone test system based on ISO New England data: Development
%  and application." IEEE Transactions on Power Systems (2015).
%
%  Line capacities (RATE_A, RATE_B, RATE_C) are added based on line flow computation.
%
%  This Matpower case was created by X. Geng (06/21/2020).
%  Complete details (original data, scripts, revised cases) can be found at:
%  https://github.com/xb00dx/ISO-NE-8Zone-Test-System

%% MATPOWER Case Format : Version 2
mpc.version = '2';

%%-----  Power Flow Data  -----%%
%% system MVA base
mpc.baseMVA = 100;

%% bus data
%	bus_i	type	Pd	Qd	Gs	Bs	area	Vm	Va	baseKV	zone	Vmax	Vmin	lam_P	lam_Q	mu_Vmax	mu_Vmin
mpc.bus = [
	1	2	1209	0	0	0	1	1	11.9681351	345	1	1.05	0.95	57.3883	0.0000	0.0000	0.0000;
	2	2	2487	0	0	0	2	1	-1.7417917	345	2	1.05	0.95	57.3883	0.0000	0.0000	0.0000;
	3	2	1518	0	0	0	3	1	-7.18639685	345	3	1.05	0.95	57.3883	0.0000	0.0000	0.0000;
	4	3	1774	0	0	0	4	1	0	345	4	1.05	0.95	57.3883	0.0000	0.0000	0.0000;
	5	2	799	0	0	0	5	1	1.65472268	345	5	1.05	0.95	57.3883	0.0000	0.0000	0.0000;
	6	2	3213	0	0	0	6	1	-9.80520798	345	6	1.05	0.95	57.3883	0.0000	0.0000	0.0000;
	7	2	606	0	0	0	7	1	1.28376799	345	7	1.05	0.95	57.3883	0.0000	0.0000	0.0000;
	8	2	1158	0	0	0	8	1	2.72125994	345	8	1.05	0.95	57.3883	0.0000	0.0000	0.0000;
];

%% generator data
%	bus	Pg	Qg	Qmax	Qmin	Vg	mBase	status	Pmax	Pmin	Pc1	Pc2	Qc1min	Qc1max	Qc2min	Qc2max	ramp_agc	ramp_10	ramp_30	ramp_q	apf	mu_Pmax	mu_Pmin	mu_Qmax	mu_Qmin
mpc.gen = [
	4	1244	0	0	0	1	100	1	1244	0	0	0	0	0	0	0	2	20	60	0	0	46.8907	0.0000	0.0000	0.0000;
	1	1235	0	0	0	1	100	1	1235	0	0	0	0	0	0	0	2	20	60	0	0	46.8202	0.0000	0.0000	0.0000;
	1	881	0	0	0	1	100	1	881	0	0	0	0	0	0	0	2	20	60	0	0	52.1240	0.0000	0.0000	0.0000;
	6	684.7	0	0	0	1	100	1	684.7	0	0	0	0	0	0	0	2	20	60	0	0	50.1007	0.0000	0.0000	0.0000;
	7	620.2	0	0	0	1	100	1	620.2	0	0	0	0	0	0	0	2	20	60	0	0	46.1154	0.0000	0.0000	0.0000;
	5	612	0	0	0	1	100	1	612	0	0	0	0	0	0	0	2	20	60	0	0	38.9614	0.0000	0.0000	0.0000;
	1	372.2	0	0	0	1	100	1	372.2	0	0	0	0	0	0	0	2	20	60	0	0	36.1651	0.0000	0.0000	0.0000;
	1	372.2	0	0	0	1	100	1	372.2	0	0	0	0	0	0	0	2	20	60	0	0	36.1651	0.0000	0.0000	0.0000;
	5	244	0	0	0	1	100	1	244	0	0	0	0	0	0	0	2	20	60	0	0	39.2297	0.0000	0.0000	0.0000;
	5	243.5	0	0	0	1	100	1	243.5	0	0	0	0	0	0	0	2	20	60	0	0	39.1298	0.0000	0.0000	0.0000;
	2	149.8	0	0	0	1	100	1	149.8	0	0	0	0	0	0	0	2	20	60	0	0	38.9523	0.0000	0.0000	0.0000;
	8	144.4	0	0	0	1	100	1	144.4	0	0	0	0	0	0	0	2	20	60	0	0	39.0536	0.0000	0.0000	0.0000;
	2	82	0	0	0	1	100	1	82	0	0	0	0	0	0	0	2	20	60	0	0	38.9686	0.0000	0.0000	0.0000;
	2	80	0	0	0	1	100	1	80	0	0	0	0	0	0	0	2	20	60	0	0	39.0691	0.0000	0.0000	0.0000;
	4	47.9	0	0	0	1	100	1	47.9	0	0	0	0	0	0	0	2	20	60	0	0	37.2483	0.0000	0.0000	0.0000;
	4	47.5	0	0	0	1	100	1	47.5	0	0	0	0	0	0	0	2	20	60	0	0	37.2496	0.0000	0.0000	0.0000;
	2	2.33641646e-14	0	0	0	1	100	1	600.4	0	0	0	0	0	0	0	2	20	60	0	0	0.0000	103.1617	0.0000	0.0000;
	6	2.69041151e-14	0	0	0	1	100	1	558.7	0	0	0	0	0	0	0	2	20	60	0	0	0.0000	95.7717	0.0000	0.0000;
	6	1.88858714e-14	0	0	0	1	100	1	553	0	0	0	0	0	0	0	2	20	60	0	0	0.0000	134.6717	0.0000	0.0000;
	1	2.48746202e-14	0	0	0	1	100	1	447.9	0	0	0	0	0	0	0	2	20	60	0	0	0.0000	102.6117	0.0000	0.0000;
	5	1.88326062e-14	0	0	0	1	100	1	435	0	0	0	0	0	0	0	2	20	60	0	0	0.0000	134.6117	0.0000	0.0000;
	2	1.41065808e-14	0	0	0	1	100	1	431	0	0	0	0	0	0	0	2	20	60	0	0	0.0000	175.6117	0.0000	0.0000;
	1	1.42873042e-14	0	0	0	1	100	1	407.4	0	0	0	0	0	0	0	2	20	60	0	0	0.0000	176.0317	0.0000	0.0000;
	4	400.2	0	0	0	1	100	1	400.2	0	0	0	0	0	0	0	2	20	60	0	0	1.6977	0.0000	0.0000	0.0000;
	1	1.76669754e-14	0	0	0	1	100	1	400	0	0	0	0	0	0	0	2	20	60	0	0	0.0000	142.7517	0.0000	0.0000;
	1	1.83589896e-14	0	0	0	1	100	1	236	0	0	0	0	0	0	0	2	20	60	0	0	0.0000	134.6717	0.0000	0.0000;
	1	2.57093597e-14	0	0	0	1	100	1	168	0	0	0	0	0	0	0	2	20	60	0	0	0.0000	93.7717	0.0000	0.0000;
	1	2.45925906e-14	0	0	0	1	100	1	130.5	0	0	0	0	0	0	0	2	20	60	0	0	0.0000	94.7717	0.0000	0.0000;
	1	1.76358811e-14	0	0	0	1	100	1	117	0	0	0	0	0	0	0	2	20	60	0	0	0.0000	134.6717	0.0000	0.0000;
	2	2.19980785e-14	0	0	0	1	100	1	115.5	0	0	0	0	0	0	0	2	20	60	0	0	0.0000	96.7717	0.0000	0.0000;
	1	81	0	0	0	1	100	1	81	0	0	0	0	0	0	0	2	20	60	0	0	3.0643	0.0000	0.0000	0.0000;
	2	693.8	0	0	0	1	100	1	693.8	0	0	0	0	0	0	0	6.66666667	66.6666667	200	0	0	30.1787	0.0000	0.0000	0.0000;
	2	685.3	0	0	0	1	100	1	685.3	0	0	0	0	0	0	0	6.66666667	66.6666667	200	0	0	28.2461	0.0000	0.0000	0.0000;
	6	66.4866174	0	0	0	1	100	1	675.5	0	0	0	0	0	0	0	6.66666667	66.6666667	200	0	0	0.0000	0.0000	0.0000	0.0000;
	2	7.03779053e-14	0	0	0	1	100	1	554.8	0	0	0	0	0	0	0	6.66666667	66.6666667	200	0	0	0.0000	32.6117	0.0000	0.0000;
	5	515.5	0	0	0	1	100	1	515.5	0	0	0	0	0	0	0	6.66666667	66.6666667	200	0	0	26.6578	0.0000	0.0000	0.0000;
	4	508	0	0	0	1	100	1	508	0	0	0	0	0	0	0	6.66666667	66.6666667	200	0	0	31.2916	0.0000	0.0000	0.0000;
	2	490.4	0	0	0	1	100	1	490.4	0	0	0	0	0	0	0	6.66666667	66.6666667	200	0	0	31.5243	0.0000	0.0000	0.0000;
	1	447.9	0	0	0	1	100	1	447.9	0	0	0	0	0	0	0	6.66666667	66.6666667	200	0	0	4.7725	0.0000	0.0000	0.0000;
	5	270.9	0	0	0	1	100	1	270.9	0	0	0	0	0	0	0	6.66666667	66.6666667	200	0	0	17.2611	0.0000	0.0000	0.0000;
	5	64.7136409	0	0	0	1	100	1	264.9	0	0	0	0	0	0	0	6.66666667	66.6666667	200	0	0	0.0000	0.0000	0.0000	0.0000;
	5	248.7	0	0	0	1	100	1	248.7	0	0	0	0	0	0	0	6.66666667	66.6666667	200	0	0	35.1483	0.0000	0.0000	0.0000;
	5	247.8	0	0	0	1	100	1	247.8	0	0	0	0	0	0	0	6.66666667	66.6666667	200	0	0	35.0984	0.0000	0.0000	0.0000;
	5	247.8	0	0	0	1	100	1	247.8	0	0	0	0	0	0	0	6.66666667	66.6666667	200	0	0	35.1984	0.0000	0.0000	0.0000;
	2	244.9	0	0	0	1	100	1	244.9	0	0	0	0	0	0	0	6.66666667	66.6666667	200	0	0	3.9189	0.0000	0.0000	0.0000;
	6	2.28832073e-11	0	0	0	1	100	1	244.8	0	0	0	0	0	0	0	6.66666667	66.6666667	200	0	0	0.0000	0.6117	0.0000	0.0000;
	5	1.72304542e-08	0	0	0	1	100	1	238.6	0	0	0	0	0	0	0	6.66666667	66.6666667	200	0	0	0.0000	0.1117	0.0000	0.0000;
	8	238.3	0	0	0	1	100	1	238.3	0	0	0	0	0	0	0	6.66666667	66.6666667	200	0	0	30.6010	0.0000	0.0000	0.0000;
	5	119.392721	0	0	0	1	100	1	236.4	0	0	0	0	0	0	0	6.66666667	66.6666667	200	0	0	0.0000	0.0000	0.0000	0.0000;
	2	5.9100197e-14	0	0	0	1	100	1	153.5	0	0	0	0	0	0	0	6.66666667	66.6666667	200	0	0	0.0000	32.6117	0.0000	0.0000;
	5	55.5176153	0	0	0	1	100	1	149	0	0	0	0	0	0	0	6.66666667	66.6666667	200	0	0	0.0000	0.0000	0.0000	0.0000;
	5	24.5493018	0	0	0	1	100	1	149	0	0	0	0	0	0	0	6.66666667	66.6666667	200	0	0	0.0000	0.0000	0.0000	0.0000;
	5	11.093767	0	0	0	1	100	1	149	0	0	0	0	0	0	0	6.66666667	66.6666667	200	0	0	0.0000	0.0000	0.0000	0.0000;
	5	3.14276928	0	0	0	1	100	1	149	0	0	0	0	0	0	0	6.66666667	66.6666667	200	0	0	0.0000	0.0000	0.0000	0.0000;
	6	4.60939487	0	0	0	1	100	1	141.1	0	0	0	0	0	0	0	6.66666667	66.6666667	200	0	0	0.0000	0.0000	0.0000	0.0000;
	8	5.46345477e-14	0	0	0	1	100	1	141	0	0	0	0	0	0	0	6.66666667	66.6666667	200	0	0	0.0000	37.6117	0.0000	0.0000;
	6	1.79868803e-08	0	0	0	1	100	1	104.9	0	0	0	0	0	0	0	6.66666667	66.6666667	200	0	0	0.0000	0.1117	0.0000	0.0000;
	8	4.55604234e-14	0	0	0	1	100	1	104	0	0	0	0	0	0	0	6.66666667	66.6666667	200	0	0	0.0000	42.6117	0.0000	0.0000;
	1	8.39854303	0	0	0	1	100	1	43.9	0	0	0	0	0	0	0	6.66666667	66.6666667	200	0	0	0.0000	0.0000	0.0000	0.0000;
	1	8.39854303	0	0	0	1	100	1	43.5	0	0	0	0	0	0	0	6.66666667	66.6666667	200	0	0	0.0000	0.0000	0.0000	0.0000;
	1	8.39854303	0	0	0	1	100	1	43.5	0	0	0	0	0	0	0	6.66666667	66.6666667	200	0	0	0.0000	0.0000	0.0000	0.0000;
	1	8.39854303	0	0	0	1	100	1	42.6	0	0	0	0	0	0	0	6.66666667	66.6666667	200	0	0	0.0000	0.0000	0.0000	0.0000;
	8	7.87649616e-15	0	0	0	1	100	1	275	0	0	0	0	0	0	0	6.66666667	66.6666667	200	0	0	0.0000	317.6117	0.0000	0.0000;
	5	7.29935464e-15	0	0	0	1	100	1	300	0	0	0	0	0	0	0	6.66666667	66.6666667	200	0	0	0.0000	342.6117	0.0000	0.0000;
	5	8.55593957e-15	0	0	0	1	100	1	325	0	0	0	0	0	0	0	6.66666667	66.6666667	200	0	0	0.0000	292.6117	0.0000	0.0000;
	1	9.32712998e-15	0	0	0	1	100	1	225	0	0	0	0	0	0	0	6.66666667	66.6666667	200	0	0	0.0000	267.6117	0.0000	0.0000;
	8	7.85616484e-15	0	0	0	1	100	1	150	0	0	0	0	0	0	0	6.66666667	66.6666667	200	0	0	0.0000	317.6117	0.0000	0.0000;
	8	8.53617281e-15	0	0	0	1	100	1	175	0	0	0	0	0	0	0	6.66666667	66.6666667	200	0	0	0.0000	292.6117	0.0000	0.0000;
	2	1.02169686e-14	0	0	0	1	100	1	175	0	0	0	0	0	0	0	6.66666667	66.6666667	200	0	0	0.0000	242.6117	0.0000	0.0000;
	2	1.04509452e-14	0	0	0	1	100	1	85	0	0	0	0	0	0	0	6.66666667	66.6666667	200	0	0	0.0000	232.6117	0.0000	0.0000;
	2	9.51450941e-15	0	0	0	1	100	1	55	0	0	0	0	0	0	0	6.66666667	66.6666667	200	0	0	0.0000	252.6117	0.0000	0.0000;
	2	9.26058497e-15	0	0	0	1	100	1	150	0	0	0	0	0	0	0	6.66666667	66.6666667	200	0	0	0.0000	267.6117	0.0000	0.0000;
	2	8.50780885e-15	0	0	0	1	100	1	200	0	0	0	0	0	0	0	6.66666667	66.6666667	200	0	0	0.0000	292.6117	0.0000	0.0000;
	2	8.77894343e-15	0	0	0	1	100	1	150	0	0	0	0	0	0	0	6.66666667	66.6666667	200	0	0	0.0000	282.6117	0.0000	0.0000;
	2	7.78676227e-15	0	0	0	1	100	1	100	0	0	0	0	0	0	0	6.66666667	66.6666667	200	0	0	0.0000	317.6117	0.0000	0.0000;
	2	9.76310252e-15	0	0	0	1	100	1	125	0	0	0	0	0	0	0	6.66666667	66.6666667	200	0	0	0.0000	252.6117	0.0000	0.0000;
];

%% branch data
%	fbus	tbus	r	x	b	rateA	rateB	rateC	ratio	angle	status	angmin	angmax	Pf	Qf	Pt	Qt	mu_Sf	mu_St	mu_angmin	mu_angmax
mpc.branch = [
	2	4	0	0.05	0	600	660	720	0	0	1	0	0	-60.8000	0.0000	60.8000	0.0000	0.0000	0.0000	0.0000	0.0000;
	7	4	0	0.04	0	250	275	300	0	0	1	0	0	56.0149	0.0000	-56.0149	0.0000	0.0000	0.0000	0.0000	0.0000;
	7	8	0	0.06	0	250	275	300	0	0	1	0	0	-41.8149	0.0000	41.8149	0.0000	0.0000	0.0000	0.0000	0.0000;
	8	4	0	0.03	0	600	660	720	0	0	1	0	0	158.3165	0.0000	-158.3165	0.0000	0.0000	0.0000	0.0000	0.0000;
	3	8	0	0.03	0	750	825	900	0	0	1	0	0	-576.4041	0.0000	576.4041	0.0000	0.0000	0.0000	0.0000	0.0000;
	3	4	0	0.02	0	750	825	900	0	0	1	0	0	-627.1314	0.0000	627.1314	0.0000	0.0000	0.0000	0.0000	0.0000;
	3	6	0	0.01	0	750	825	900	0	0	1	0	0	457.0688	0.0000	-457.0688	0.0000	0.0000	0.0000	0.0000	0.0000;
	8	1	0	0.01	0	2500	2750	3000	0	0	1	0	0	-1613.8842	0.0000	1613.8842	0.0000	0.0000	0.0000	0.0000	0.0000;
	8	5	0	0.03	0	300	330	360	0	0	1	0	0	62.0486	0.0000	-62.0486	0.0000	0.0000	0.0000	0.0000	0.0000;
	3	5	0	0.02	0	1250	1375	1500	0	0	1	0	0	-771.5332	0.0000	771.5332	0.0000	0.0000	0.0000	0.0000	0.0000;
	1	5	0	0.03	0	800	880	960	0	0	1	0	0	600.0100	0.0000	-600.0100	0.0000	0.0000	0.0000	0.0000	0.0000;
	6	5	0	0.01	0	2500	2750	3000	0	0	1	0	0	-2000.1352	0.0000	2000.1352	0.0000	0.0000	0.0000	0.0000	0.0000;
];

%%-----  OPF Data  -----%%
%% generator cost data
%	1	startup	shutdown	n	x1	y1	...	xn	yn
%	2	startup	shutdown	n	c(n-1)	...	c0
mpc.gencost = [
	2	950000	95000	3	0.0002	10	1000;
	2	850000	85000	3	0.00023	10	1250;
	2	900000	90000	3	0.00015	5	1500;
	2	875000	87500	3	0.00021	7	1250;
	2	925000	92500	3	0.00022	11	1500;
	2	20915.15	2091.515	3	0.00012	18.28	3042.4;
	2	17336.83	1733.683	3	0.00167	19.98	1540;
	2	17500	1750	3	0.00167	19.98	1535;
	2	16860.36	1686.036	3	0.00012	18.1	1212.98;
	2	13947.52	1394.752	3	0.00012	18.2	1210.5;
	2	13872.67	1387.267	3	0.00012	18.4	744.69;
	2	13727.67	1372.767	3	0.00012	18.3	717.85;
	2	3486.01	348.601	3	0.00012	18.4	407.64;
	2	2441.71	244.171	3	0.00012	18.3	397.7;
	2	5774.179	577.4179	3	0.00167	19.98	238.12;
	2	5774.179	577.4179	3	0.00167	19.98	236.13;
	2	115287	11528.7	3	0.02367	160.55	10379;
	2	272400.8	27240.08	3	0.0346	153.16	10707;
	2	191144.1	19114.41	3	0.03463	192.06	12828;
	2	100000	10000	3	0.0236	160	7000;
	2	120000	12000	3	0.0345	192	10000;
	2	85000	8500	3	0.0312	233	8260;
	2	86332.49	8633.249	3	0.00598	233.42	7367;
	2	32566.38	3256.638	3	0.0014	54.57	3175;
	2	62461.34	6246.134	3	0.02184	200.14	11358;
	2	120000	12000	3	0.03463	192.06	5000;
	2	45000	4500	3	0.0347	151.16	4000;
	2	45000	4500	3	0.0345	152.16	3500;
	2	80000	8000	3	0.03463	192.06	2800;
	2	45000	4500	3	0.0346	154.16	3000;
	2	12000	1200	3	0.002	54	2100;
	2	66889.42	6688.942	3	0.00294	23.13	3858.73;
	2	66889.42	6688.942	3	0.00292	25.14	3858.73;
	2	76560.21	7656.021	3	0.00292	57	610.84;
	2	25000	2500	3	0.00292	90	612.84;
	2	325.75	32.575	3	0.00292	27.72	0;
	2	1000	100	3	0.00292	23.13	0;
	2	1000	100	3	0.00292	23	0;
	2	2500	250	3	0.00292	50	0;
	2	2352	235.2	3	0.0229	27.72	0;
	2	12000	1200	3	0.003	57	500;
	2	11112.19	1111.219	3	2e-05	22.23	699.7;
	2	11112.19	1111.219	3	2e-05	22.28	699.7;
	2	11112.19	1111.219	3	2e-05	22.18	699.7;
	2	62500	6250	3	0.003	52	0;
	2	12000	1200	3	0.004	58	475;
	2	12000	1200	3	0.0035	57.5	485;
	2	7500	750	3	0.00375	25	250;
	2	12000	1200	3	0.00372	56.5	495;
	2	5000	500	3	0.0041	90	250;
	2	7250	725	3	0.008	56.5	250;
	2	4000	400	3	0.013	56.75	350;
	2	3500	350	3	0.0175	57	325;
	2	4000	400	3	0.022	57.25	375;
	2	5000	500	3	0.015	57.25	320;
	2	7250	725	3	0.0035	95	200;
	2	2500	250	3	0.005	57.5	300;
	2	7750	775	3	0.0075	100	250;
	2	325.75	32.575	3	0.02133	57.03	612.84;
	2	325.75	32.575	3	0.02133	57.03	612.84;
	2	325.75	32.575	3	0.02133	57.03	612.84;
	2	325.75	32.575	3	0.02133	57.03	612.84;
	2	0	0	3	0.0042	375	0;
	2	0	0	3	0.0035	400	0;
	2	0	0	3	0.0036	350	0;
	2	0	0	3	0.0342	325	0;
	2	0	0	3	0.008	375	0;
	2	0	0	3	0.009	350	0;
	2	0	0	3	0.009	300	0;
	2	0	0	3	0.009	290	0;
	2	0	0	3	0.009	310	0;
	2	0	0	3	0.009	325	0;
	2	0	0	3	0.008	350	0;
	2	0	0	3	0.0075	340	0;
	2	0	0	3	0.0085	375	0;
	2	0	0	3	0.0095	310	0;
];

%% generator fuel type (see GENFUELS)
mpc.genfuel = {
	'NUC ';
	' NUC ';
	' NUC ';
	' NUC ';
	' NUC ';
	' BIT ';
	' SUB ';
	' SUB ';
	' BIT ';
	' BIT ';
	' BIT ';
	' BIT ';
	' BIT ';
	' BIT ';
	' BIT ';
	' BIT ';
	' RFO ';
	' RFO ';
	' RFO ';
	' RFO ';
	' RFO ';
	' RFO ';
	' RFO ';
	' RFO ';
	' RFO ';
	' RFO ';
	' RFO ';
	' RFO ';
	' RFO ';
	' RFO ';
	' RFO ';
	' NGLN ';
	' NGLN ';
	' NGA4 ';
	' NGA1 ';
	' NGTN ';
	' NGMN ';
	' NGMN ';
	' NGIR ';
	' NGTN ';
	' NGA4 ';
	' NGA4 ';
	' NGA4 ';
	' NGA4 ';
	' NGPN ';
	' NGA4 ';
	' NGA4 ';
	' NGT2 ';
	' NGA4 ';
	' NGA1 ';
	' NGT4 ';
	' NGA4 ';
	' NGA4 ';
	' NGA4 ';
	' NGA4 ';
	' NGT1 ';
	' NGA4 ';
	' NGT2 ';
	' NGA4 ';
	' NGA4 ';
	' NGA4 ';
	' NGA4 ';
	' NGTN ';
	' NGTN ';
	' NGTN ';
	' RFO ';
	' NGT2 ';
	' NGT2 ';
	' NGPN ';
	' NGPN ';
	' NGPN ';
	' NGTN ';
	' NGTN ';
	' NGTN ';
	' NGTN ';
	' NGTN ';
};
